FoamFile
{ version 2.0; format ascii; class dictionary; object blockMeshDict; }
scale 1;
vertices ( (0 0 0) (300 0 0) (300 300 0) (0 300 0) (0 0 200) (300 0 200) (300 300 200) (0 300 200) );
blocks ( hex (0 1 2 3 4 5 6 7) (30 30 20) simpleGrading (1 1 1) );
edges ();
boundary
(
    inlet { type patch; faces ((0 4 7 3)); }
    outlet { type patch; faces ((1 2 6 5)); }
    walls { type wall; faces ((0 1 5 4)(3 7 6 2)); }
    ground { type wall; faces ((0 3 2 1)); }
    top { type symmetryPlane; faces ((4 5 6 7)); }
);
