FoamFile
{
    version     2.0;
    format      ascii;
    class       dictionary;
    object      blockMeshDict;
}
convertToMeters 1;
vertices
(
    (0 0 0)
    (100 0 0)
    (100 100 0)
    (0 100 0)
    (0 0 100)
    (100 0 100)
    (100 100 100)
    (0 100 100)
);
blocks
(
    hex (0 1 2 3 4 5 6 7) (10 10 10) simpleGrading (1 1 1)
);
