FoamFile
{ version 2.0; format ascii; class dictionary; object surfaceFeatureExtractDict; }
terrain.stl
{
    extractionMethod extractFromSurface;
    extractFromSurfaceCoeffs { includedAngle 150; }
    writeObj yes;
}
